Circuit: * C:\Users\JEO\Google Drive\Python\LTspice\demos\lowpassRC.asc


Date: Sun Mar 11 15:54:49 2018
Total elapsed time: 0.110 seconds.

tnom = 27
temp = 27
method = trap
totiter = 0
traniter = 0
tranpoints = 0
accept = 0
rejected = 0
matrix size = 3
fillins = 0
solver = Normal

